 format  1  0

MONOMERS            
N_monomer           
                   2
kuhn                
    2.0000000000E+00    1.0000000000E+00

CHAINS              
N_chain             
                   1
N_block             
                   2
block_monomer       
                   1                   2
block_length        
    2.5000000000E-01    7.5000000000E-01

COMPOSITION         
ensemble            
                   0
phi_chain           
    1.0000000000E+00

INTERACTION         
interaction_type    
               'chi'
chi                 
    2.5000000000E+01

UNIT_CELL           
dim                 
                   3
crystal_system      
        'tetragonal'
N_cell_param        
                   2
cell_param          
    9.2573655270E+00    4.8301782739E+00

DISCRETIZATION      
ngrid               
                  64                  64                  32
chain_step          
    1.0000000000E-02

BASIS               
group_name          
        'P 42/m n m'

ITERATE             
input_filename      
             'omega'
output_prefix       
                  ''
max_itr             
                1000
error_max           
    1.0000000000E-05
domain              
                   T
itr_algo            
                'AM'
N_hist              
                  20

FINISH              

THERMO              
f_Helmholtz         
    3.2311431115E+00
f_homo              
    3.6875000000E+00
pressure            
    3.3978868583E+00
mu_chain            
    6.6290299698E+00
stress              
   -2.0867092347E-03   -1.5012342761E-03

STATISTICS          
N_star              
                8985
Final Error         
    1.5176677513E-02
Iterations          
                1001
Basis Time          
    7.8867100000E+00
SCF Time            
    4.1718246152E+04
